<?xml version="1.0" encoding="UTF-8"?>

<!-- generated on 2022-05-10 12:19:32 by Eclipse SUMO polyconvert Version v1_12_0+2111-6ef90fefe92
<configuration xmlns:xsi="http://www.w3.org/2001/XMLSchema-instance" xsi:noNamespaceSchemaLocation="http://sumo.dlr.de/xsd/polyconvertConfiguration.xsd">

    <input>
        <net-file value="osm.net.xml"/>
        <osm-files value="osm_bbox.osm.xml.gz"/>
        <osm.keep-full-type value="true"/>
        <type-file value="/home/salah/sumo/data/typemap/osmPolyconvert.typ.xml"/>
    </input>

    <output>
        <output-file value="osm.poly.xml"/>
    </output>

    <processing>
        <poi-layer-offset value="5"/>
    </processing>

    <report>
        <verbose value="true"/>
    </report>

</configuration>
-->

<additional xmlns:xsi="http://www.w3.org/2001/XMLSchema-instance" xsi:noNamespaceSchemaLocation="http://sumo.dlr.de/xsd/additional_file.xsd">
    <location netOffset="-664063.06,-3886000.54" convBoundary="-10615.61,-0.00,34695.38,53580.76" origBoundary="-1.313237,35.097822,-0.819232,35.582007" projParameter="+proj=utm +zone=30 +ellps=WGS84 +datum=WGS84 +units=m +no_defs"/>

    <poly id="1001386017" type="building.mosque" color="255,230,230" fill="1" layer="-1.00" shape="5969.381397,22102.566362 5982.071141,22078.449866 5930.483892,22048.626715 5911.965483,22074.564056 5969.381397,22102.566362"/>
    <poly id="1001386018" type="amenity.restaurant" color="237,199,199" fill="1" layer="-1.00" shape="5494.932531,20930.859716 5494.018642,20939.785940 5482.574976,20940.214279 5481.405433,20924.036440 5488.017019,20924.160787 5487.049713,20927.704425 5489.819692,20926.990896 5490.179532,20930.592783 5494.932531,20930.859716"/>
    <poly id="1001386018#1" type="building.yes" color="255,230,230" fill="1" layer="-1.00" shape="5494.932531,20930.859716 5494.018642,20939.785940 5482.574976,20940.214279 5481.405433,20924.036440 5488.017019,20924.160787 5487.049713,20927.704425 5489.819692,20926.990896 5490.179532,20930.592783 5494.932531,20930.859716"/>
    <poly id="1001386019" type="amenity.pharmacy" color="237,199,199" fill="1" layer="-1.00" shape="5500.664689,20936.626516 5505.558566,20927.952690 5494.622128,20927.047933 5494.932531,20930.859716 5494.018642,20939.785940 5500.664689,20936.626516"/>
    <poly id="1001386019#1" type="building.yes" color="255,230,230" fill="1" layer="-1.00" shape="5500.664689,20936.626516 5505.558566,20927.952690 5494.622128,20927.047933 5494.932531,20930.859716 5494.018642,20939.785940 5500.664689,20936.626516"/>
    <poly id="1009600173" type="natural.tree_row" color="140,196,107" fill="0" layer="-4.00" shape="5585.854204,20981.581557 5633.568526,21006.824372 5624.365881,21024.493602"/>
    <poly id="1009698866" type="building.yes" color="255,230,230" fill="1" layer="-1.00" shape="4982.331949,22062.447701 4984.816357,22008.079368 4873.551567,22008.422889 4879.288018,22066.828940 4982.331949,22062.447701"/>
    <poly id="1009698866#1" type="tourism.hostel" color="207,245,201" fill="1" layer="-2.00" shape="4982.331949,22062.447701 4984.816357,22008.079368 4873.551567,22008.422889 4879.288018,22066.828940 4982.331949,22062.447701"/>
    <poly id="1011018096" type="amenity.restaurant" color="237,199,199" fill="1" layer="-1.00" shape="4286.376584,21881.958685 4321.775945,21865.632084 4306.989009,21847.402513 4272.862839,21864.718306 4286.376584,21881.958685"/>
    <poly id="1011018096#1" type="building.yes" color="255,230,230" fill="1" layer="-1.00" shape="4286.376584,21881.958685 4321.775945,21865.632084 4306.989009,21847.402513 4272.862839,21864.718306 4286.376584,21881.958685"/>
    <poly id="1011250604" type="amenity.restaurant" color="237,199,199" fill="1" layer="-1.00" shape="4326.919063,22754.228571 4331.671040,22745.251958 4311.527199,22736.331555 4307.465643,22745.354368 4326.919063,22754.228571"/>
    <poly id="1011250604#1" type="building.yes" color="255,230,230" fill="1" layer="-1.00" shape="4326.919063,22754.228571 4331.671040,22745.251958 4311.527199,22736.331555 4307.465643,22745.354368 4326.919063,22754.228571"/>
    <poly id="1011250605" type="building.yes" color="255,230,230" fill="1" layer="-1.00" shape="4278.085825,22860.769618 4270.768865,22877.543198 4259.808527,22872.689188 4267.992171,22855.288226 4278.085825,22860.769618"/>
    <poly id="1011250605#1" type="shop.electrical" color="237,199,255" fill="1" layer="-1.00" shape="4278.085825,22860.769618 4270.768865,22877.543198 4259.808527,22872.689188 4267.992171,22855.288226 4278.085825,22860.769618"/>
    <poly id="1023962147" type="amenity.fountain" color="237,199,199" fill="1" layer="-1.00" shape="5138.864290,21690.250536 5138.743785,21693.277492 5139.663068,21696.157528 5141.500660,21698.577675 5144.043937,21700.234349 5146.995937,21700.955534 5149.802580,21700.697540 5152.397920,21699.581184 5154.507069,21697.712266 5155.917336,21695.275425 5156.505505,21692.534651 5156.194245,21689.732605 5155.032286,21687.180892 5153.115283,21685.114325 5150.648430,21683.747580 5147.656718,21683.203185 5144.654524,21683.701622 5141.998163,21685.160811 5139.990432,21687.442189 5138.864290,21690.250536"/>
    <poly id="1027394739" type="building.civic" color="255,230,230" fill="1" layer="-1.00" shape="5392.110205,20834.643310 5393.290314,20865.756592 5424.050435,20865.214142 5423.173722,20834.905468 5392.110205,20834.643310"/>
    <poly id="193722090" type="leisure.garden" color="207,245,201" fill="1" layer="-2.00" shape="5077.747083,21635.753616 5073.450515,21479.329935 5146.871138,21475.992183 5145.693606,21441.317168 5260.967269,21435.703628 5159.721926,21639.445026 5145.499454,21629.491158 5122.916943,21625.838270 5098.927794,21629.759821 5077.747083,21635.753616"/>
    <poly id="193729770" type="landuse.cemetery" color="194,194,130" fill="1" layer="-3.00" shape="5780.690407,20836.030394 5809.763221,20691.841082 5895.227447,20700.564390 5909.759725,20706.674892 5930.083377,20708.167689 5947.608397,20710.439962 5967.310194,20708.725447 5991.571816,20708.361935 6033.240830,20722.773992 6026.217183,20753.643928 6007.523066,20795.023612 5966.181328,20861.197544 5780.690407,20836.030394"/>
    <poly id="193730675" type="amenity.hospital" color="237,199,199" fill="1" layer="-1.00" shape="5819.853029,20608.777428 5830.238331,20515.832763 5929.762359,20517.708665 5935.932637,20508.925955 6041.123697,20497.361625 6115.764282,20489.149836 6167.589576,20507.793141 6197.566001,20681.313913 6209.440065,20754.461684 6046.258724,20737.777399 6038.308016,20670.229790 6016.273059,20640.808930 5993.204267,20629.532908 5819.853029,20608.777428"/>
    <poly id="193731897" type="amenity.university" color="237,199,199" fill="1" layer="-2.00" shape="6260.914277,21390.563833 6452.220513,20977.333012 6778.668386,21101.232643 6978.208189,21137.905541 6957.477534,21304.642482 6946.705956,21357.888296 6945.465805,21371.468655 6260.914277,21390.563833"/>
    <poly id="193732224" type="amenity.hospital" color="237,199,199" fill="1" layer="-1.00" shape="4701.661158,21985.839649 4705.329874,21790.418858 4999.038825,21793.016617 4998.868187,21810.356508 5036.493620,21825.775744 5057.224915,21865.034162 5066.255585,21911.684924 5067.153343,21968.058537 5068.407238,21990.429487 4701.661158,21985.839649"/>
    <poly id="193908133" type="leisure.sports_centre" color="207,245,201" fill="1" layer="-2.00" shape="4275.360752,23109.790601 4330.727685,22992.797211 4345.993385,22985.304278 4356.144398,22989.166825 4366.888896,23042.040444 4387.729738,23031.156579 4412.705701,23026.286458 4414.749863,23039.540035 4441.562695,23039.553305 4479.904578,23050.467808 4508.844944,23068.019503 4538.398864,23105.267120 4541.708501,23111.154474 4549.587169,23107.152028 4559.143185,23144.247360 4561.484262,23175.637446 4560.966003,23203.323417 4550.742710,23228.120294 4545.751317,23233.852277 4557.343635,23240.382904 4486.013608,23349.575405 4481.409297,23360.873768 4564.281610,23416.828626 4578.250976,23556.755878 4566.345887,23567.440380 4421.605518,23480.213318 4285.563327,23398.987811 4222.273966,23365.748808 4238.653537,23272.315803 4251.179517,23202.600647 4265.815668,23150.412235 4275.360752,23109.790601"/>
    <poly id="193908133#1" type="sport.multi" color="79,230,125" fill="1" layer="-2.00" shape="4275.360752,23109.790601 4330.727685,22992.797211 4345.993385,22985.304278 4356.144398,22989.166825 4366.888896,23042.040444 4387.729738,23031.156579 4412.705701,23026.286458 4414.749863,23039.540035 4441.562695,23039.553305 4479.904578,23050.467808 4508.844944,23068.019503 4538.398864,23105.267120 4541.708501,23111.154474 4549.587169,23107.152028 4559.143185,23144.247360 4561.484262,23175.637446 4560.966003,23203.323417 4550.742710,23228.120294 4545.751317,23233.852277 4557.343635,23240.382904 4486.013608,23349.575405 4481.409297,23360.873768 4564.281610,23416.828626 4578.250976,23556.755878 4566.345887,23567.440380 4421.605518,23480.213318 4285.563327,23398.987811 4222.273966,23365.748808 4238.653537,23272.315803 4251.179517,23202.600647 4265.815668,23150.412235 4275.360752,23109.790601"/>
    <poly id="193978263" type="leisure.stadium" color="207,245,201" fill="1" layer="-2.00" shape="4997.726329,22588.289219 4984.398143,22544.320739 5015.081789,22534.455106 5027.828416,22580.809469 4997.726329,22588.289219"/>
    <poly id="193978458" type="landuse.commercial" color="209,209,204" fill="1" layer="-3.00" shape="4574.270785,22323.869223 4562.736202,22314.188463 4510.124266,22283.566617 4476.735481,22307.719416 4463.523853,22322.529583 4453.854991,22354.615921 4452.646421,22392.974385 4453.487634,22428.730339 4462.258974,22452.895043 4463.373122,22471.623743 4467.706266,22487.971533 4462.096506,22501.459211 4508.325669,22521.187208 4537.000870,22464.046689 4558.036363,22421.942614 4557.627156,22404.924775 4569.188515,22399.559848 4591.866484,22358.651659 4574.270785,22323.869223"/>
    <poly id="193978742" type="amenity.police" color="237,199,199" fill="1" layer="-1.00" shape="4786.309444,22817.008443 4852.593693,22818.217688 4850.391587,22896.858399 4784.890689,22895.619434 4785.842112,22851.164367 4786.309444,22817.008443"/>
    <poly id="193979990" type="landuse.industrial" color="209,209,204" fill="1" layer="-3.00" shape="6176.174371,22557.805285 6270.191167,22523.597420 6301.247163,22528.290145 6332.351381,22530.431779 6366.226642,22533.225127 6369.923015,22508.040240 6660.226303,22568.839425 7096.444160,22660.736405 7133.136748,22680.862967 7376.287967,22877.850367 7433.271830,23165.528080 7418.637921,23330.327995 7350.317123,23638.911807 7317.979434,23902.530828 7286.985109,24036.826795 6902.319568,24004.394181 6668.525094,23778.479055 6571.055882,23566.803296 6437.426742,23202.893121 6313.660307,22936.318957 6176.174371,22557.805285"/>
    <poly id="193980351" type="amenity.parking" color="184,184,179" fill="1" layer="-1.00" shape="4223.519946,23168.096827 4149.102628,23183.217740 4137.155071,23169.390958 4043.490652,23194.849902 4104.817964,23381.996724 4151.532022,23388.694384 4171.997622,23390.053050 4212.256347,23196.536281 4223.519946,23168.096827"/>
    <poly id="193983131" type="leisure.garden" color="207,245,201" fill="1" layer="-2.00" shape="4616.121014,22394.368800 4722.834669,22377.415146 4720.477579,22364.854683 4710.212636,22366.071603 4710.747856,22341.381892 4716.397639,22339.379473 4709.751747,22327.060467 4706.771051,22327.881224 4693.779216,22297.423444 4670.440355,22303.643985 4667.605971,22291.307621 4648.230088,22298.656550 4626.952916,22336.628205 4605.924026,22377.866778 4616.121014,22394.368800"/>
    <poly id="193983230" type="landuse.commercial" color="209,209,204" fill="1" layer="-3.00" shape="5077.747083,21635.753616 5098.927794,21629.759821 5122.916943,21625.838270 5145.499454,21629.491158 5159.721926,21639.445026 5148.449668,21669.070626 5135.185755,21672.505492 5113.907110,21662.397015 5077.747083,21635.753616"/>
    <poly id="193983231" type="amenity.bus_station" color="237,199,199" fill="1" layer="-1.00" shape="5156.395098,21790.466210 5164.582845,21781.221606 5192.789366,21749.373045 5238.646198,21775.988284 5267.407275,21803.725032 5293.648880,21835.309250 5297.883972,21869.886456 5280.686321,21902.107995 5156.395098,21790.466210"/>
    <poly id="193983306" type="leisure.pitch" color="207,245,201" fill="1" layer="-2.00" shape="5290.455978,21433.971862 5348.101994,21430.683323 5352.014023,21534.238586 5295.851092,21536.578480 5290.455978,21433.971862"/>
    <poly id="193983306#1" type="sport.soccer" color="79,230,125" fill="1" layer="-2.00" shape="5290.455978,21433.971862 5348.101994,21430.683323 5352.014023,21534.238586 5295.851092,21536.578480 5290.455978,21433.971862"/>
    <poly id="193983311" type="amenity.place_of_worship" color="237,199,199" fill="1" layer="-1.00" shape="5073.450515,21479.329935 5070.460267,21445.253403 5145.693606,21441.317168 5146.871138,21475.992183 5073.450515,21479.329935"/>
    <poly id="194736685" type="amenity.marketplace" color="237,199,199" fill="1" layer="-1.00" shape="5695.251030,23326.379109 5714.108024,23320.443015 5729.829926,23340.900979 5708.658365,23352.862984 5695.251030,23326.379109"/>
    <poly id="194736686" type="building.yes" color="255,230,230" fill="1" layer="-1.00" shape="5496.678879,23275.047903 5550.691665,23300.354124 5573.055961,23253.062059 5519.043146,23227.744622 5496.678879,23275.047903"/>
    <poly id="194736687" type="tourism.hotel" color="207,245,201" fill="1" layer="-2.00" shape="5215.047370,22981.697112 5264.892232,22964.669324 5307.367953,22950.166311 5327.362356,23002.760353 5339.388290,23036.041688 5286.923997,23070.496121 5283.350780,23072.847893 5276.135968,23067.641363 5257.112210,23053.890824 5235.724845,23023.618250 5222.738004,23000.793705 5215.047370,22981.697112"/>
    <poly id="195066089" type="landuse.retail" color="194,194,130" fill="1" layer="-3.00" shape="4372.283092,22699.030657 4428.158347,22700.952013 4441.364422,22669.386747 4395.966242,22649.519247 4372.283092,22699.030657"/>
    <poly id="195066090" type="leisure.park" color="207,245,201" fill="1" layer="-2.00" shape="4773.259265,22693.620130 4800.550999,22682.214472 4776.173736,22668.176073 4768.627044,22680.162611 4773.259265,22693.620130"/>
    <poly id="195072584" type="landuse.residential" color="235,235,227" fill="1" layer="-3.00" shape="4598.938188,22738.411954 4685.112160,22619.345254 4771.100149,22665.650966 4760.257050,22696.283642 4613.477023,22743.544197 4598.938188,22738.411954"/>
    <poly id="199248281" type="building.yes" color="255,230,230" fill="1" layer="-1.00" shape="4806.416147,22617.756602 4824.037455,22612.272572 4835.548617,22638.208955 4818.903334,22642.091235 4815.404451,22642.902237 4806.416147,22617.756602"/>
    <poly id="199309488" type="leisure.stadium" color="207,245,201" fill="1" layer="-2.00" shape="4485.239622,21868.599019 4534.096326,21888.575819 4622.240359,21927.518927 4663.032769,21833.544872 4676.163656,21835.732519 4679.500869,21813.935871 4662.114268,21804.378469 4665.487795,21780.640697 4542.461837,21731.213553 4485.239622,21868.599019"/>
    <poly id="199309488#1" type="sport.football" color="79,230,125" fill="1" layer="-2.00" shape="4485.239622,21868.599019 4534.096326,21888.575819 4622.240359,21927.518927 4663.032769,21833.544872 4676.163656,21835.732519 4679.500869,21813.935871 4662.114268,21804.378469 4665.487795,21780.640697 4542.461837,21731.213553 4485.239622,21868.599019"/>
    <poly id="237077819" type="landuse.retail" color="194,194,130" fill="1" layer="-3.00" shape="4346.520042,22755.693449 4388.104926,22775.655867 4403.202152,22750.927765 4389.790032,22724.934256 4365.108131,22714.031468 4346.520042,22755.693449"/>
    <poly id="237077904" type="building.yes" color="255,230,230" fill="1" layer="-1.00" shape="4444.849567,22728.638025 4471.759109,22738.118037 4478.987205,22716.882339 4454.546308,22706.227922 4444.849567,22728.638025"/>
    <poly id="237078184" type="building.yes" color="255,230,230" fill="1" layer="-1.00" shape="4457.292291,22702.872810 4480.005544,22714.471363 4489.665904,22693.525285 4466.693414,22682.654198 4457.292291,22702.872810"/>
    <poly id="237078595" type="building.hotel" color="255,230,230" fill="1" layer="-1.00" shape="4833.434836,22744.657957 4839.768223,22731.894193 4798.270497,22707.315334 4780.617230,22712.088659 4784.495044,22726.486307 4803.107461,22722.463306 4800.088617,22727.266786 4833.434836,22744.657957"/>
    <poly id="237078595#1" type="tourism.hotel" color="207,245,201" fill="1" layer="-2.00" shape="4833.434836,22744.657957 4839.768223,22731.894193 4798.270497,22707.315334 4780.617230,22712.088659 4784.495044,22726.486307 4803.107461,22722.463306 4800.088617,22727.266786 4833.434836,22744.657957"/>
    <poly id="237117016" type="building.yes" color="255,230,230" fill="1" layer="-1.00" shape="4429.538537,22807.588251 4436.596861,22794.449435 4431.315591,22791.842964 4431.838290,22787.725025 4432.041647,22784.633043 4433.267849,22782.292526 4435.836032,22779.688612 4437.042942,22778.379664 4438.536003,22777.819500 4443.534621,22779.976848 4450.155546,22766.397116 4465.719628,22773.612153 4443.779671,22814.046175 4434.823741,22809.983971 4429.538537,22807.588251"/>
    <poly id="237117422" type="building.public" color="255,230,230" fill="1" layer="-1.00" shape="4769.200437,22501.028007 4775.326701,22498.834830 4785.326025,22525.375272 4778.104911,22527.747653 4769.200437,22501.028007"/>
    <poly id="237117480" type="landuse.commercial" color="209,209,204" fill="1" layer="-3.00" shape="4724.800901,22376.364568 4730.025172,22374.254324 4730.288716,22375.723935 4736.104024,22373.624767 4736.382062,22374.806153 4756.295643,22364.970887 4745.776985,22333.605097 4729.847820,22295.347208 4703.915236,22305.036516 4719.208425,22347.143856 4720.477579,22364.854683 4724.800901,22376.364568"/>
    <poly id="237117562" type="building.yes" color="255,230,230" fill="1" layer="-1.00" shape="4687.179415,22297.211075 4717.304198,22286.124472 4707.111954,22253.344567 4675.798602,22264.264704 4687.179415,22297.211075"/>
    <poly id="237117766" type="amenity.studio" color="237,199,199" fill="1" layer="-1.00" shape="4769.058740,22353.248510 4754.394491,22306.714446 4780.229501,22297.866751 4781.680048,22311.231350 4780.806915,22318.993301 4776.457335,22325.391876 4787.225403,22327.424495 4786.055682,22335.480480 4783.345991,22343.196921 4784.195311,22349.326744 4769.058740,22353.248510"/>
    <poly id="237117766#1" type="building.public" color="255,230,230" fill="1" layer="-1.00" shape="4769.058740,22353.248510 4754.394491,22306.714446 4780.229501,22297.866751 4781.680048,22311.231350 4780.806915,22318.993301 4776.457335,22325.391876 4787.225403,22327.424495 4786.055682,22335.480480 4783.345991,22343.196921 4784.195311,22349.326744 4769.058740,22353.248510"/>
    <poly id="237117881" type="building.office" color="255,230,230" fill="1" layer="-1.00" shape="4794.657773,22352.618594 4875.370386,22344.200554 4868.481046,22278.893319 4853.023639,22280.512059 4855.154850,22300.746780 4850.479366,22301.236127 4853.598137,22330.898793 4827.687364,22333.597659 4827.223912,22329.206042 4811.712045,22330.823827 4812.175504,22335.215443 4793.036159,22337.220212 4794.657773,22352.618594"/>
    <poly id="237118046" type="shop.mall" color="237,199,255" fill="1" layer="-1.00" shape="5104.851024,22680.177940 5134.385086,22672.421586 5125.365557,22585.048336 5122.012618,22579.537214 5118.298727,22577.747589 5111.350610,22579.625511 5086.172972,22585.455356 5090.120470,22605.324816 5086.051065,22606.968305 5090.386597,22637.175474 5098.139316,22638.463924 5104.851024,22680.177940"/>
    <poly id="237742663" type="amenity.arts_centre" color="237,199,199" fill="1" layer="-1.00" shape="4531.912298,22526.965706 4563.899424,22460.544395 4631.631529,22491.438613 4600.607762,22558.365967 4531.912298,22526.965706"/>
    <poly id="237742777" type="man_made.water_tower" color="255,230,230" fill="1" layer="-1.00" shape="4185.949255,22488.597798 4225.737700,22507.427323 4249.233341,22459.654127 4200.907124,22462.069221 4185.949255,22488.597798"/>
    <poly id="237743021" type="building.office" color="255,230,230" fill="1" layer="-1.00" shape="4402.198278,22828.447876 4411.183541,22806.135390 4432.186520,22815.793340 4421.526004,22837.220085 4402.198278,22828.447876"/>
    <poly id="237897004" type="landuse.commercial" color="209,209,204" fill="1" layer="-3.00" shape="4652.036029,22033.189174 4668.526678,22038.590996 4688.095120,22035.562036 4685.080839,21988.136723 4653.836348,21989.016383 4654.254699,21992.907818 4648.867058,21994.016417 4652.036029,22033.189174"/>
    <poly id="237897497" type="building.public" color="255,230,230" fill="1" layer="-1.00" shape="4757.581295,22429.374096 4766.174141,22426.128619 4756.186009,22399.466366 4746.611118,22402.693455 4757.581295,22429.374096"/>
    <poly id="237940912" type="amenity.place_of_worship" color="237,199,199" fill="1" layer="-1.00" shape="4146.024114,22644.194760 4163.617525,22610.946789 4214.594863,22635.044989 4200.329971,22668.798871 4146.024114,22644.194760"/>
    <poly id="237941091" type="amenity.place_of_worship" color="237,199,199" fill="1" layer="-1.00" shape="4719.069542,23075.562023 4757.870740,23088.638972 4762.053110,23047.950521 4726.098212,23038.777217 4719.069542,23075.562023"/>
    <poly id="237941091#1" type="building.yes" color="255,230,230" fill="1" layer="-1.00" shape="4719.069542,23075.562023 4757.870740,23088.638972 4762.053110,23047.950521 4726.098212,23038.777217 4719.069542,23075.562023"/>
    <poly id="237941105" type="amenity.townhall" color="237,199,199" fill="1" layer="-1.00" shape="5892.812755,23472.611957 5911.984625,23490.949443 5975.321374,23469.797294 5966.152577,23438.532870 5899.833034,23462.547089 5892.812755,23472.611957"/>
    <poly id="237941239" type="amenity.place_of_worship" color="237,199,199" fill="1" layer="-1.00" shape="6108.611042,23597.745229 6154.582231,23595.529174 6153.251569,23562.470818 6106.346734,23565.956401 6108.611042,23597.745229"/>
    <poly id="237941239#1" type="building.yes" color="255,230,230" fill="1" layer="-1.00" shape="6108.611042,23597.745229 6154.582231,23595.529174 6153.251569,23562.470818 6106.346734,23565.956401 6108.611042,23597.745229"/>
    <poly id="237941310" type="amenity.post_office" color="237,199,199" fill="1" layer="-1.00" shape="6083.248619,23645.234676 6106.842906,23635.971304 6098.399880,23617.836048 6076.269310,23627.127093 6083.248619,23645.234676"/>
    <poly id="237941310#1" type="building.yes" color="255,230,230" fill="1" layer="-1.00" shape="6083.248619,23645.234676 6106.842906,23635.971304 6098.399880,23617.836048 6076.269310,23627.127093 6083.248619,23645.234676"/>
    <poly id="237941794" type="landuse.retail" color="194,194,130" fill="1" layer="-3.00" shape="4822.456300,22803.372091 4854.643405,22804.463746 4855.489609,22785.527582 4821.820256,22785.384593 4822.456300,22803.372091"/>
    <poly id="238327773" type="waterway.canal" color="181,209,209" fill="0" layer="-4.00" shape="4214.292009,21702.399953 4207.799754,21710.534139 4163.207507,21746.617967 4141.520255,21758.363263 4090.545158,21786.028516 4069.648126,21791.996626 4046.232593,21791.559817 4006.812303,21775.234759 3953.740408,21753.406978 3904.689396,21740.342592 3850.065003,21738.836482 3817.292623,21743.085975 3782.483798,21751.669460 3737.101141,21767.778971 3703.302019,21785.169535 3610.405382,21873.317776 3573.118374,21910.516716 3531.192634,21934.503041 3403.412506,21983.623775 3395.984068,21989.322189"/>
    <poly id="238327872" type="waterway.canal" color="181,209,209" fill="0" layer="-4.00" shape="4523.573805,20612.140888 4538.298646,20633.787088 4585.964900,20720.683547 4592.224213,20777.090553"/>
    <poly id="238911258" type="amenity.fuel" color="237,199,199" fill="1" layer="-1.00" shape="4271.389730,21802.353581 4246.135921,21767.861653 4206.401824,21796.124565 4229.388911,21826.812515 4271.389730,21802.353581"/>
    <poly id="238911303" type="amenity.bus_station" color="237,199,199" fill="1" layer="-1.00" shape="4137.595721,21935.980878 4210.976959,21906.736995 4232.534031,21898.540160 4227.703473,21887.353975 4213.554609,21893.891602 4193.874457,21886.822177 4140.523968,21904.345438 4137.718231,21905.535820 4126.018093,21910.521463 4137.595721,21935.980878"/>
    <poly id="238911303#1" type="building.yes" color="255,230,230" fill="1" layer="-1.00" shape="4137.595721,21935.980878 4210.976959,21906.736995 4232.534031,21898.540160 4227.703473,21887.353975 4213.554609,21893.891602 4193.874457,21886.822177 4140.523968,21904.345438 4137.718231,21905.535820 4126.018093,21910.521463 4137.595721,21935.980878"/>
    <poly id="240214902" type="amenity.courthouse" color="237,199,199" fill="1" layer="-1.00" shape="4377.512441,21914.674899 4349.607512,21878.490878 4358.497296,21856.453944 4393.108139,21828.306745 4485.239622,21868.599019 4534.096326,21888.575819 4500.234511,21966.146975 4377.512441,21914.674899"/>
    <poly id="240215136" type="landuse.residential" color="235,235,227" fill="1" layer="-3.00" shape="6745.701465,21017.087295 6739.515839,20992.081463 6756.771161,20938.936140 6759.621308,20930.157624 6773.207698,20932.368000 6736.874291,20875.089265 6550.334949,20809.241220 6474.151634,20918.827495 6745.701465,21017.087295"/>
    <poly id="254322940" type="amenity.fuel" color="237,199,199" fill="1" layer="-1.00" shape="4395.391385,21183.406599 4413.960506,21156.058086 4405.247148,21126.268981 4384.611067,21081.665882 4288.260533,21118.735117 4395.391385,21183.406599"/>
    <poly id="317770835" type="landuse.retail" color="194,194,130" fill="1" layer="-3.00" shape="4775.955522,22782.716295 4775.303719,22809.245785 4740.610822,22808.395958 4741.262522,22781.866470 4775.955522,22782.716295"/>
    <poly id="332597295" type="tourism.theme_park" color="207,245,201" fill="1" layer="-2.00" shape="5361.606354,21309.457646 5487.040908,21361.537634 5540.718198,21251.076501 5515.866104,21240.356171 5412.325112,21192.737532 5361.606354,21309.457646"/>
    <poly id="335062395" type="landuse.residential" color="235,235,227" fill="1" layer="-3.00" shape="5004.837317,22332.925224 5081.607630,22328.607151 5079.550014,22270.558415 5003.171089,22272.897685 5004.837317,22332.925224"/>
    <poly id="342583350" type="landuse.residential" color="235,235,227" fill="1" layer="-3.00" shape="5268.339284,21056.823689 5326.276383,21055.115983 5318.203586,20951.682389 5291.470688,20952.400703 5293.613199,20985.085484 5264.908053,20986.676694 5268.339284,21056.823689"/>
    <poly id="342583351" type="building.residential" color="255,230,230" fill="1" layer="-1.00" shape="5293.486064,20967.640130 5293.424251,20956.886913 5306.240279,20956.528504 5311.975848,20958.245190 5315.574576,20961.841344 5319.257423,20966.770606 5320.603883,20980.810198 5309.175977,20981.372202 5309.220496,20974.160615 5302.358405,20974.297995 5302.213947,20967.460124 5293.486064,20967.640130"/>
    <poly id="371266013" type="amenity.school" color="237,199,199" fill="1" layer="-2.00" shape="5315.420224,22231.026433 5390.649847,22252.591281 5395.877192,22208.249850 5332.154835,22184.704273 5315.420224,22231.026433"/>
    <poly id="371266016" type="amenity.school" color="237,199,199" fill="1" layer="-2.00" shape="5412.325112,21192.737532 5512.889336,20973.029580 5519.369283,20958.870860 5521.238483,20954.778293 5630.565424,21006.390575 5515.866104,21240.356171 5412.325112,21192.737532"/>
    <poly id="371269664" type="amenity.college" color="237,199,199" fill="1" layer="-2.00" shape="4821.037872,23324.404376 4831.949348,23382.752233 4929.763258,23362.561157 4916.776105,23305.805329 4821.037872,23324.404376"/>
    <poly id="371269666" type="amenity.college" color="237,199,199" fill="1" layer="-2.00" shape="5007.046087,23642.023169 5034.376376,23808.633240 5230.223632,23775.540106 5197.368708,23609.812981 5007.046087,23642.023169"/>
    <poly id="381324355" type="landuse.industrial" color="209,209,204" fill="1" layer="-3.00" shape="6046.258724,20737.777399 6025.088728,20851.068425 6036.899480,20871.696963 6214.711285,20888.657549 6224.377302,20842.192139 6202.941841,20840.333682 6209.440065,20754.461684 6046.258724,20737.777399"/>
    <poly id="381324355#1" type="man_made.works" color="255,230,230" fill="1" layer="-1.00" shape="6046.258724,20737.777399 6025.088728,20851.068425 6036.899480,20871.696963 6214.711285,20888.657549 6224.377302,20842.192139 6202.941841,20840.333682 6209.440065,20754.461684 6046.258724,20737.777399"/>
    <poly id="381324359" type="landuse.residential" color="235,235,227" fill="1" layer="-3.00" shape="5321.392384,20837.164653 5387.894769,20834.331058 5389.982059,20868.002384 5323.024575,20870.860687 5321.392384,20837.164653"/>
    <poly id="381324360" type="landuse.residential" color="235,235,227" fill="1" layer="-3.00" shape="5486.910588,20752.251148 5543.973772,20807.262383 5426.252622,20812.438390 5425.157908,20755.495127 5486.910588,20752.251148"/>
    <poly id="381324361" type="building.train_station" color="255,230,230" fill="1" layer="-1.00" shape="5093.496510,21682.131018 5102.014437,21690.191270 5099.384058,21693.659341 5105.867433,21699.129322 5107.865852,21696.858858 5113.153590,21701.085838 5112.562389,21706.411933 5097.941324,21724.967460 5071.101175,21701.472744 5070.827667,21700.535544 5087.028632,21682.619908 5093.496510,21682.131018"/>
    <poly id="381324364" type="landuse.residential" color="235,235,227" fill="1" layer="-3.00" shape="4964.090166,22507.788847 4985.064283,22585.899007 4874.287805,22612.970530 4855.958534,22549.479349 4863.135658,22541.691341 4882.355391,22520.824994 4930.383348,22509.586614 4964.090166,22507.788847"/>
    <poly id="381324365" type="landuse.residential" color="235,235,227" fill="1" layer="-3.00" shape="5016.355247,22504.885858 5036.992741,22575.222615 5118.964632,22549.065707 5116.232156,22460.612178 5068.258415,22468.932353 5038.288097,22480.031773 5016.355247,22504.885858"/>